*SRC=1N4751A;DI_1N4751A;Diodes;Zener 10V-50V; 30.0V  1.00W   Diodes Inc. Zener
*SYM=HZEN
.SUBCKT DI_1N4751A  1 2
*        Terminals    A   K
D1 1 2 DF
DZ 3 1 DR
VZ 2 3 27.8
.MODEL DF D ( IS=13.7p RS=0.620 N=1.10
+ CJO=46.7p VJ=1.00 M=0.330 TT=50.1n )
.MODEL DR D ( IS=2.75f RS=2.61 N=2.87 )
.ENDS
