*SRC=1N5221B;DI_1N5221B;Diodes;Zener <=10V; 2.40V  0.500W   DIODES INC ZENER
*SYM=HZEN
.SUBCKT DI_1N5221B  1 2
*        Terminals    A   K
D1 1 2 DF
DZ 3 1 DR
VZ 2 3 0
.MODEL DF D ( IS=85.8p RS=2.47m N=1.10
+ CJO=388p VJ=0.750 M=0.330 TT=50.1n )
.MODEL DR D ( IS=17.2f RS=26.1 N=3.00 )
.ENDS
