* JFETs N;Depl;40.0V 0.150A 30.0ohms
.MODEL sm_NJFET NJF( VTO=-2.00 BETA=4.5m LAMBDA=11.9m RD=4.20
+ RS=3.78 IS=29.6f PB=1.00 FC=.5 CGS=3.3p CGD=3.3p )
