* JFETs P;Depl;30.0V 25.0mA 150ohms
.MODEL sm_PJFET PJF( VTO=-3.00 BETA=5.00m LAMBDA=1.20m RD=21.0
+ RS=18.9 IS=6.58f PB=1.00 FC=.5 CGS=12.5p CGD=17.1p )
