.model 2SA1302 PNP( IS=21.479p BF=136.48 VAF=100 IKF=19.980 ISE=21.504p NE=1.3784 BR=329.48 VAR=100 IKR=19.980 ISC=4.3670n NC=1.4264 RC=93.301m CJE=755.31p MJE=.33333 CJC=1.1417n MJC=.33333 TF=1.2802n XTF=10 VTF=10 ITF=1 TR=10.000n VCEO=200V ICrating=15A MFG=Toshiba)
