.model 2sc3281 npn IS=229.07p BF=135 NF=1.257 VAF=50 IKF=20 ISE=5.222p NE=1.392 BR=1 NR=1.411 VAR=75 NC=2 RB=4 RE=2m RC=0.0389 CJE=6050p VJE=0.75 MJE=0.234 TF=5.3n XTF=0.4 ITF=4 CJC=440.35p VJC=0.75 MJC=0.233 TR=3.6e-8 XTB=1.08 VCEO=200V ICrating=15A MFG=Toshiba
